version 2
1
1
.ac dec 20 1 10Meg{return}.kicad adjustpaths{return}.save all{return}.probe alli
0
