version 2
1
9
.tran 1n 2u{return}.kicad adjustpaths{return}.save all{return}.probe alli
2
1
V(In)
 
1
V(Out)
 
