version 2
1
9
.tran 500u 1{return}{return}{return}.kicad adjustpaths{return}.save all{return}.probe alli
3
1
V(Net-_R6-Pad1_)
 
1
V(Net-_U4--_)
 
1
V(Potentiol_Div)
 
